data_1
_audit_creation_date              2022-10-29
_audit_creation_method            'Materials Studio'
_symmetry_space_group_name_H-M    'P1'
_symmetry_Int_Tables_number       1
_symmetry_cell_setting            triclinic
loop_
_symmetry_equiv_pos_as_xyz
  x,y,z
_cell_length_a                    20.0000
_cell_length_b                    20.0000
_cell_length_c                    20.0000
_cell_angle_alpha                 90.0000
_cell_angle_beta                  90.0000
_cell_angle_gamma                 90.0000
loop_
_atom_site_label
_atom_site_type_symbol
_atom_site_fract_x
_atom_site_fract_y
_atom_site_fract_z
_atom_site_U_iso_or_equiv
_atom_site_adp_type
_atom_site_occupancy
C1     C    -0.35020  -0.47997  -0.22746   0.00000  Uiso   1.00
O2     O    -0.41715  -0.50564  -0.22747   0.00000  Uiso   1.00
C3     C    -0.46606  -0.45860  -0.22747   0.00000  Uiso   1.00
O4     O    -0.45482  -0.39884  -0.22746   0.00000  Uiso   1.00
C5     C    -0.53283  -0.49044  -0.22747   0.00000  Uiso   1.00
C6     C    -0.58848  -0.45324  -0.22746   0.00000  Uiso   1.00
C7     C    -0.65835  -0.47991  -0.22746   0.00000  Uiso   1.00
H8     H    -0.58239  -0.39910  -0.22746   0.00000  Uiso   1.00
H9     H    -0.31764  -0.52372  -0.22744   0.00000  Uiso   1.00
H10    H    -0.34125  -0.44939  -0.27190   0.00000  Uiso   1.00
H11    H    -0.34127  -0.44937  -0.18303   0.00000  Uiso   1.00
H12    H    -0.65947  -0.53462  -0.22746   0.00000  Uiso   1.00
H13    H    -0.68596  -0.46200  -0.18350   0.00000  Uiso   1.00
H14    H    -0.68597  -0.46200  -0.27141   0.00000  Uiso   1.00
H15    H    -0.53437  -0.54475  -0.22747   0.00000  Uiso   1.00
H16    H    -0.53437  -0.54475  -0.22747   0.00000  Uiso   1.00
H17    H    -0.53437  -0.54475  -0.22747   0.00000  Uiso   1.00
H18    H    -0.53437  -0.54475  -0.22747   0.00000  Uiso   1.00
H19    H    -0.53437  -0.54475  -0.22747   0.00000  Uiso   1.00
H20    H    -0.53437  -0.54475  -0.22747   0.00000  Uiso   1.00
H21    H    -0.53437  -0.54475  -0.22747   0.00000  Uiso   1.00
H22    H    -0.53437  -0.54475  -0.22747   0.00000  Uiso   1.00
H23    H    -0.53437  -0.54475  -0.22747   0.00000  Uiso   1.00
H24    H    -0.53437  -0.54475  -0.22747   0.00000  Uiso   1.00
H25    H    -0.53437  -0.54475  -0.22747   0.00000  Uiso   1.00
H26    H    -0.53437  -0.54475  -0.22747   0.00000  Uiso   1.00
H27    H    -0.53437  -0.54475  -0.22747   0.00000  Uiso   1.00
H28    H    -0.53437  -0.54475  -0.22747   0.00000  Uiso   1.00
H29    H    -0.53437  -0.54475  -0.22747   0.00000  Uiso   1.00
H30    H    -0.53437  -0.54475  -0.22747   0.00000  Uiso   1.00
H31    H    -0.53437  -0.54475  -0.22747   0.00000  Uiso   1.00
H32    H    -0.53437  -0.54475  -0.22747   0.00000  Uiso   1.00
H33    H    -0.53437  -0.54475  -0.22747   0.00000  Uiso   1.00
H34    H    -0.53437  -0.54475  -0.22747   0.00000  Uiso   1.00
H35    H    -0.53437  -0.54475  -0.22747   0.00000  Uiso   1.00
H36    H    -0.53437  -0.54475  -0.22747   0.00000  Uiso   1.00
H37    H    -0.53437  -0.54475  -0.22747   0.00000  Uiso   1.00
H38    H    -0.53437  -0.54475  -0.22747   0.00000  Uiso   1.00
H39    H    -0.53437  -0.54475  -0.22747   0.00000  Uiso   1.00
H40    H    -0.53437  -0.54475  -0.22747   0.00000  Uiso   1.00
H41    H    -0.53437  -0.54475  -0.22747   0.00000  Uiso   1.00
H42    H    -0.53437  -0.54475  -0.22747   0.00000  Uiso   1.00
H43    H    -0.53437  -0.54475  -0.22747   0.00000  Uiso   1.00
H44    H    -0.53437  -0.54475  -0.22747   0.00000  Uiso   1.00
H45    H    -0.53437  -0.54475  -0.22747   0.00000  Uiso   1.00
C46    C    -0.31578   0.52634  -0.72882   0.00000  Uiso   1.00
C47    C    -0.37511   0.56042  -0.72626   0.00000  Uiso   1.00
C48    C    -0.43834   0.52671  -0.72326   0.00000  Uiso   1.00
C49    C    -0.43792   0.45423  -0.72311   0.00000  Uiso   1.00
C50    C    -0.37450   0.42088  -0.72567   0.00000  Uiso   1.00
C51    C    -0.31543   0.45536  -0.72847   0.00000  Uiso   1.00
C52    C    -0.49968   0.56174  -0.72102   0.00000  Uiso   1.00
C53    C    -0.49845   0.41786  -0.72102   0.00000  Uiso   1.00
C54    C    -0.55979   0.45288  -0.72326   0.00000  Uiso   1.00
C55    C    -0.56022   0.52536  -0.72311   0.00000  Uiso   1.00
C56    C    -0.62363   0.55872  -0.72567   0.00000  Uiso   1.00
H57    H    -0.62489   0.61288  -0.72647   0.00000  Uiso   1.00
C58    C    -0.68270   0.52423  -0.72847   0.00000  Uiso   1.00
C59    C    -0.68235   0.45325  -0.72882   0.00000  Uiso   1.00
C60    C    -0.62303   0.41917  -0.72626   0.00000  Uiso   1.00
H61    H    -0.26887   0.55363  -0.73148   0.00000  Uiso   1.00
H62    H    -0.37392   0.61455  -0.72773   0.00000  Uiso   1.00
H63    H    -0.37324   0.36671  -0.72647   0.00000  Uiso   1.00
H64    H    -0.26826   0.42849  -0.73079   0.00000  Uiso   1.00
H65    H    -0.72987   0.55110  -0.73079   0.00000  Uiso   1.00
H66    H    -0.72926   0.42596  -0.73148   0.00000  Uiso   1.00
H67    H    -0.62421   0.36504  -0.72774   0.00000  Uiso   1.00
C68    C    -0.49636   0.34222  -0.71745   0.00000  Uiso   1.00
H69    H    -0.54338   0.32092  -0.69995   0.00000  Uiso   1.00
H70    H    -0.48522   0.31959  -0.76626   0.00000  Uiso   1.00
H71    H    -0.45780   0.32519  -0.68259   0.00000  Uiso   1.00
C72    C    -0.50178   0.63737  -0.71746   0.00000  Uiso   1.00
H73    H    -0.54032   0.65440  -0.68257   0.00000  Uiso   1.00
H74    H    -0.45475   0.65868  -0.69997   0.00000  Uiso   1.00
H75    H    -0.51294   0.66000  -0.76625   0.00000  Uiso   1.00
H76    H    -0.51294   0.66000  -0.76625   0.00000  Uiso   1.00
H77    H    -0.51294   0.66000  -0.76625   0.00000  Uiso   1.00
H78    H    -0.51294   0.66000  -0.76625   0.00000  Uiso   1.00
H79    H    -0.51294   0.66000  -0.76625   0.00000  Uiso   1.00
H80    H    -0.51294   0.66000  -0.76625   0.00000  Uiso   1.00
H81    H    -0.51294   0.66000  -0.76625   0.00000  Uiso   1.00
H82    H    -0.51294   0.66000  -0.76625   0.00000  Uiso   1.00
H83    H    -0.51294   0.66000  -0.76625   0.00000  Uiso   1.00
H84    H    -0.51294   0.66000  -0.76625   0.00000  Uiso   1.00
loop_
_geom_bond_atom_site_label_1
_geom_bond_atom_site_label_2
_geom_bond_distance
_geom_bond_site_symmetry_2
_ccdc_geom_bond_type
C1     O2      1.434   .     S
C1     H9      1.091   .     S
C1     H10     1.094   .     S
C1     H11     1.094   .     S
O2     C3      1.357   .     S
C3     O4      1.216   .     D
C3     C5      1.479   .     S
C5     C6      1.339   .     S
C5     H15     1.087   .     S
C5     H16     1.087   .     S
C5     H17     1.087   .     S
C5     H18     1.087   .     S
C5     H19     1.087   .     S
C5     H20     1.087   .     S
C5     H21     1.087   .     S
C5     H22     1.087   .     S
C5     H23     1.087   .     S
C5     H24     1.087   .     S
C5     H25     1.087   .     S
C5     H26     1.087   .     S
C5     H27     1.087   .     S
C5     H28     1.087   .     S
C5     H29     1.087   .     S
C5     H30     1.087   .     S
C5     H31     1.087   .     S
C5     H32     1.087   .     S
C5     H33     1.087   .     S
C5     H34     1.087   .     S
C5     H35     1.087   .     S
C5     H36     1.087   .     S
C5     H37     1.087   .     S
C5     H38     1.087   .     S
C5     H39     1.087   .     S
C5     H40     1.087   .     S
C5     H41     1.087   .     S
C5     H42     1.087   .     S
C5     H43     1.087   .     S
C5     H44     1.087   .     S
C5     H45     1.087   .     S
C6     C7      1.496   .     S
C6     H8      1.090   .     S
C7     H12     1.094   .     S
C7     H13     1.098   .     S
C7     H14     1.098   .     S
C46    C47     1.369   .     D
C46    C51     1.420   .     S
C46    H61     1.087   .     S
C47    C48     1.434   .     S
C47    H62     1.083   .     S
C48    C49     1.450   .     D
C48    C52     1.413   .     S
C49    C50     1.434   .     S
C49    C53     1.413   .     S
C50    C51     1.369   .     D
C50    H63     1.084   .     S
C51    H64     1.087   .     S
C52    C55     1.413   .     D
C52    C72     1.515   .     S
C53    C54     1.413   .     D
C53    C68     1.515   .     S
C54    C55     1.450   .     S
C54    C60     1.435   .     S
C55    C56     1.434   .     S
C56    H57     1.084   .     S
C56    C58     1.369   .     D
C58    C59     1.420   .     S
C58    H65     1.087   .     S
C59    C60     1.369   .     D
C59    H66     1.087   .     S
C60    H67     1.083   .     S
C68    H69     1.090   .     S
C68    H70     1.099   .     S
C68    H71     1.094   .     S
C72    H73     1.094   .     S
C72    H74     1.090   .     S
C72    H75     1.099   .     S
C72    H76     1.099   .     S
C72    H77     1.099   .     S
C72    H78     1.099   .     S
C72    H79     1.099   .     S
C72    H80     1.099   .     S
C72    H81     1.099   .     S
C72    H82     1.099   .     S
C72    H83     1.099   .     S
C72    H84     1.099   .     S
