data_is
_audit_creation_date              2022-10-29
_audit_creation_method            'Materials Studio'
_symmetry_space_group_name_H-M    'P1'
_symmetry_Int_Tables_number       1
_symmetry_cell_setting            triclinic
loop_
_symmetry_equiv_pos_as_xyz
  x,y,z
_cell_length_a                    20.0000
_cell_length_b                    20.0000
_cell_length_c                    20.0000
_cell_angle_alpha                 90.0000
_cell_angle_beta                  90.0000
_cell_angle_gamma                 90.0000
loop_
_atom_site_label
_atom_site_type_symbol
_atom_site_fract_x
_atom_site_fract_y
_atom_site_fract_z
_atom_site_U_iso_or_equiv
_atom_site_adp_type
_atom_site_occupancy
C1     C    -0.35393  -0.47878  -0.33561   0.00000  Uiso   1.00
O2     O    -0.42088  -0.50445  -0.33562   0.00000  Uiso   1.00
C3     C    -0.46979  -0.45741  -0.33562   0.00000  Uiso   1.00
O4     O    -0.45855  -0.39765  -0.33561   0.00000  Uiso   1.00
C5     C    -0.53656  -0.48925  -0.33562   0.00000  Uiso   1.00
C6     C    -0.59221  -0.45205  -0.33561   0.00000  Uiso   1.00
C7     C    -0.66208  -0.47872  -0.33561   0.00000  Uiso   1.00
H8     H    -0.58612  -0.39791  -0.33561   0.00000  Uiso   1.00
H9     H    -0.32137  -0.52253  -0.33559   0.00000  Uiso   1.00
H10    H    -0.34498  -0.44820  -0.38005   0.00000  Uiso   1.00
H11    H    -0.34500  -0.44818  -0.29118   0.00000  Uiso   1.00
H12    H    -0.66320  -0.53343  -0.33561   0.00000  Uiso   1.00
H13    H    -0.68969  -0.46081  -0.29165   0.00000  Uiso   1.00
H14    H    -0.68970  -0.46081  -0.37956   0.00000  Uiso   1.00
H15    H    -0.53810  -0.54356  -0.33562   0.00000  Uiso   1.00
C16    C     0.69649   0.59083   0.32728   0.00000  Uiso   1.00
C17    C     0.63717   0.62491   0.32984   0.00000  Uiso   1.00
C18    C     0.57393   0.59120   0.33284   0.00000  Uiso   1.00
C19    C     0.57436   0.51873   0.33299   0.00000  Uiso   1.00
C20    C     0.63778   0.48537   0.33043   0.00000  Uiso   1.00
C21    C     0.69685   0.51985   0.32763   0.00000  Uiso   1.00
C22    C     0.51260   0.62623   0.33508   0.00000  Uiso   1.00
C23    C     0.51383   0.48235   0.33508   0.00000  Uiso   1.00
C24    C     0.45249   0.51738   0.33284   0.00000  Uiso   1.00
C25    C     0.45206   0.58985   0.33299   0.00000  Uiso   1.00
C26    C     0.38865   0.62321   0.33043   0.00000  Uiso   1.00
H27    H     0.38739   0.67737   0.32964   0.00000  Uiso   1.00
C28    C     0.32957   0.58873   0.32763   0.00000  Uiso   1.00
C29    C     0.32993   0.51774   0.32728   0.00000  Uiso   1.00
C30    C     0.38925   0.48366   0.32984   0.00000  Uiso   1.00
H31    H     0.74341   0.61812   0.32463   0.00000  Uiso   1.00
H32    H     0.63836   0.67905   0.32837   0.00000  Uiso   1.00
H33    H     0.63904   0.43121   0.32963   0.00000  Uiso   1.00
H34    H     0.74402   0.49298   0.32531   0.00000  Uiso   1.00
H35    H     0.28240   0.61560   0.32532   0.00000  Uiso   1.00
H36    H     0.28302   0.49045   0.32462   0.00000  Uiso   1.00
H37    H     0.38807   0.42953   0.32836   0.00000  Uiso   1.00
C38    C     0.51592   0.40671   0.33865   0.00000  Uiso   1.00
H39    H     0.46890   0.38541   0.35616   0.00000  Uiso   1.00
H40    H     0.52706   0.38408   0.28985   0.00000  Uiso   1.00
H41    H     0.55448   0.38968   0.37352   0.00000  Uiso   1.00
C42    C     0.51050   0.70186   0.33865   0.00000  Uiso   1.00
H43    H     0.47195   0.71890   0.37353   0.00000  Uiso   1.00
H44    H     0.55753   0.72317   0.35613   0.00000  Uiso   1.00
H45    H     0.49934   0.72449   0.28985   0.00000  Uiso   1.00
loop_
_geom_bond_atom_site_label_1
_geom_bond_atom_site_label_2
_geom_bond_distance
_geom_bond_site_symmetry_2
_ccdc_geom_bond_type
C1     O2      1.434   .     S
C1     H9      1.091   .     S
C1     H10     1.094   .     S
C1     H11     1.094   .     S
O2     C3      1.357   .     S
C3     O4      1.216   .     D
C3     C5      1.479   .     S
C5     C6      1.339   .     S
C5     H15     1.087   .     S
C6     C7      1.496   .     S
C6     H8      1.090   .     S
C7     H12     1.094   .     S
C7     H13     1.098   .     S
C7     H14     1.098   .     S
C16    C17     1.369   .     D
C16    C21     1.420   .     S
C16    H31     1.087   .     S
C17    C18     1.434   .     S
C17    H32     1.083   .     S
C18    C19     1.450   .     D
C18    C22     1.413   .     S
C19    C20     1.434   .     S
C19    C23     1.413   .     S
C20    C21     1.369   .     D
C20    H33     1.084   .     S
C21    H34     1.087   .     S
C22    C25     1.413   .     D
C22    C42     1.515   .     S
C23    C24     1.413   .     D
C23    C38     1.515   .     S
C24    C25     1.450   .     S
C24    C30     1.435   .     S
C25    C26     1.434   .     S
C26    H27     1.084   .     S
C26    C28     1.369   .     D
C28    C29     1.420   .     S
C28    H35     1.087   .     S
C29    C30     1.369   .     D
C29    H36     1.087   .     S
C30    H37     1.083   .     S
C38    H39     1.090   .     S
C38    H40     1.099   .     S
C38    H41     1.094   .     S
C42    H43     1.094   .     S
C42    H44     1.090   .     S
C42    H45     1.099   .     S
